<additional>
	<vType id="car" accel="0.8" decel="4.5" sigma="1.0" length="4" minGap="2.5" maxSpeed="13.89" guiShape="passenger" />
</additional>