<?xml version="1.0" encoding="UTF-8"?>

<!-- generated on Tue Dec  5 13:48:09 2017 by SUMO duarouter Version 0.25.0
<?xml version="1.0" encoding="UTF-8"?>

<configuration xmlns:xsi="http://www.w3.org/2001/XMLSchema-instance" xsi:noNamespaceSchemaLocation="http://sumo.dlr.de/xsd/duarouterConfiguration.xsd">

    <input>
        <net-file value="grid.net.xml"/>
        <additional-files value="grid.rand.rou.add.xml"/>
        <trip-files value="grid.trip.xml"/>
    </input>

    <output>
        <output-file value="grid.rou.xml"/>
    </output>

    <processing>
        <ignore-errors value="true"/>
    </processing>

    <time>
        <begin value="0.0"/>
        <end value="1000.0"/>
    </time>

    <report>
        <no-warnings value="true"/>
        <no-step-log value="true"/>
    </report>

</configuration>
-->

<routes xmlns:xsi="http://www.w3.org/2001/XMLSchema-instance" xsi:noNamespaceSchemaLocation="http://sumo.dlr.de/xsd/routes_file.xsd">
    <vehicle id="0" depart="0.00">
        <route edges="0/3to1/3 1/3to1/2 1/2to1/1 1/1to2/1 2/1to2/0 2/0to1/0 1/0to1/1"/>
    </vehicle>
    <vehicle id="1" depart="3.00">
        <route edges="0/2to0/3 0/3to1/3 1/3to1/2 1/2to2/2 2/2to2/1 2/1to1/1"/>
    </vehicle>
    <vehicle id="2" depart="6.00">
        <route edges="0/0to0/1 0/1to0/2 0/2to0/3 0/3to1/3 1/3to1/2"/>
    </vehicle>
    <vehicle id="3" depart="9.00">
        <route edges="2/3to2/2 2/2to1/2 1/2to1/1 1/1to0/1 0/1to0/2"/>
    </vehicle>
    <vehicle id="4" depart="12.00">
        <route edges="2/2to2/3 2/3to1/3 1/3to1/2 1/2to1/1 1/1to2/1 2/1to2/0 2/0to1/0"/>
    </vehicle>
    <vehicle id="5" depart="15.00">
        <route edges="2/3to2/2 2/2to2/1 2/1to2/0"/>
    </vehicle>
    <vehicle id="6" depart="18.00">
        <route edges="1/0to0/0 0/0to0/1 0/1to1/1 1/1to2/1 2/1to3/1 3/1to3/2"/>
    </vehicle>
    <vehicle id="7" depart="21.00">
        <route edges="0/1to0/2 0/2to1/2 1/2to2/2 2/2to3/2 3/2to3/3"/>
    </vehicle>
    <vehicle id="8" depart="24.00">
        <route edges="3/0to2/0 2/0to2/1 2/1to1/1 1/1to1/0"/>
    </vehicle>
    <vehicle id="9" depart="27.00">
        <route edges="2/1to2/2 2/2to1/2 1/2to0/2"/>
    </vehicle>
    <vehicle id="10" depart="30.00">
        <route edges="0/1to0/2 0/2to1/2 1/2to1/1 1/1to2/1 2/1to3/1 3/1to3/2"/>
    </vehicle>
    <vehicle id="11" depart="33.00">
        <route edges="2/0to2/1 2/1to1/1 1/1to1/2 1/2to0/2 0/2to0/1"/>
    </vehicle>
    <vehicle id="12" depart="36.00">
        <route edges="3/2to3/1 3/1to2/1 2/1to1/1 1/1to1/2 1/2to1/3 1/3to0/3 0/3to0/2"/>
    </vehicle>
    <vehicle id="13" depart="39.00">
        <route edges="2/1to2/2 2/2to1/2 1/2to0/2"/>
    </vehicle>
    <vehicle id="14" depart="42.00">
        <route edges="2/1to3/1 3/1to3/0 3/0to2/0 2/0to1/0"/>
    </vehicle>
    <vehicle id="15" depart="45.00">
        <route edges="2/0to3/0 3/0to3/1 3/1to2/1 2/1to1/1 1/1to1/2 1/2to1/3 1/3to2/3"/>
    </vehicle>
    <vehicle id="16" depart="48.00">
        <route edges="3/3to2/3 2/3to1/3 1/3to1/2 1/2to0/2 0/2to0/1"/>
    </vehicle>
    <vehicle id="17" depart="51.00">
        <route edges="3/2to3/3 3/3to2/3 2/3to1/3 1/3to1/2 1/2to1/1 1/1to1/0 1/0to2/0 2/0to2/1"/>
    </vehicle>
    <vehicle id="18" depart="54.00">
        <route edges="2/2to1/2 1/2to1/1 1/1to2/1 2/1to2/2 2/2to3/2 3/2to3/1"/>
    </vehicle>
    <vehicle id="19" depart="57.00">
        <route edges="0/1to0/0 0/0to1/0 1/0to1/1 1/1to2/1 2/1to3/1 3/1to3/2"/>
    </vehicle>
    <vehicle id="20" depart="60.00">
        <route edges="3/0to3/1 3/1to2/1 2/1to1/1 1/1to0/1 0/1to0/2"/>
    </vehicle>
    <vehicle id="21" depart="63.00">
        <route edges="2/3to1/3 1/3to1/2 1/2to0/2 0/2to0/1 0/1to1/1 1/1to1/2"/>
    </vehicle>
    <vehicle id="22" depart="66.00">
        <route edges="1/2to1/1 1/1to1/0 1/0to2/0 2/0to2/1"/>
    </vehicle>
    <vehicle id="23" depart="69.00">
        <route edges="3/0to2/0 2/0to1/0 1/0to1/1 1/1to1/2 1/2to1/3 1/3to2/3 2/3to2/2"/>
    </vehicle>
    <vehicle id="24" depart="72.00">
        <route edges="1/3to2/3 2/3to2/2 2/2to1/2 1/2to1/1 1/1to1/0 1/0to2/0 2/0to2/1"/>
    </vehicle>
    <vehicle id="25" depart="75.00">
        <route edges="1/2to0/2 0/2to0/1 0/1to1/1 1/1to1/0 1/0to0/0"/>
    </vehicle>
    <vehicle id="26" depart="78.00">
        <route edges="2/1to2/2 2/2to1/2 1/2to1/1 1/1to0/1 0/1to0/2"/>
    </vehicle>
    <vehicle id="27" depart="81.00">
        <route edges="3/0to3/1 3/1to2/1 2/1to1/1 1/1to0/1 0/1to0/0"/>
    </vehicle>
    <vehicle id="28" depart="84.00">
        <route edges="2/0to2/1 2/1to3/1 3/1to3/2 3/2to2/2"/>
    </vehicle>
    <vehicle id="29" depart="87.00">
        <route edges="2/2to2/3 2/3to1/3 1/3to1/2 1/2to1/1 1/1to1/0 1/0to0/0 0/0to0/1"/>
    </vehicle>
    <vehicle id="30" depart="90.00">
        <route edges="3/3to3/2 3/2to2/2 2/2to1/2 1/2to0/2 0/2to0/1"/>
    </vehicle>
    <vehicle id="31" depart="93.00">
        <route edges="0/3to0/2 0/2to0/1 0/1to1/1 1/1to2/1 2/1to2/0"/>
    </vehicle>
    <vehicle id="32" depart="96.00">
        <route edges="0/0to1/0 1/0to1/1 1/1to1/2 1/2to2/2"/>
    </vehicle>
    <vehicle id="33" depart="99.00">
        <route edges="1/1to2/1 2/1to3/1 3/1to3/0 3/0to2/0"/>
    </vehicle>
    <vehicle id="34" depart="102.00">
        <route edges="3/1to3/0 3/0to2/0 2/0to2/1 2/1to2/2 2/2to3/2 3/2to3/3"/>
    </vehicle>
    <vehicle id="35" depart="105.00">
        <route edges="1/1to0/1 0/1to0/2 0/2to0/3 0/3to1/3"/>
    </vehicle>
    <vehicle id="36" depart="108.00">
        <route edges="2/1to3/1 3/1to3/2 3/2to2/2 2/2to1/2 1/2to1/1 1/1to0/1"/>
    </vehicle>
    <vehicle id="37" depart="111.00">
        <route edges="3/0to2/0 2/0to1/0 1/0to1/1 1/1to1/2 1/2to0/2 0/2to0/1"/>
    </vehicle>
    <vehicle id="38" depart="114.00">
        <route edges="1/2to1/1 1/1to0/1 0/1to0/0 0/0to1/0"/>
    </vehicle>
    <vehicle id="39" depart="117.00">
        <route edges="2/3to1/3 1/3to1/2 1/2to0/2"/>
    </vehicle>
    <vehicle id="40" depart="120.00">
        <route edges="1/1to1/2 1/2to0/2 0/2to0/1 0/1to1/1 1/1to1/0 1/0to2/0"/>
    </vehicle>
    <vehicle id="41" depart="123.00">
        <route edges="3/1to3/0 3/0to2/0 2/0to1/0 1/0to1/1 1/1to0/1"/>
    </vehicle>
    <vehicle id="42" depart="126.00">
        <route edges="1/2to1/1 1/1to0/1 0/1to0/2 0/2to1/2 1/2to1/3 1/3to2/3"/>
    </vehicle>
    <vehicle id="43" depart="129.00">
        <route edges="1/2to1/3 1/3to2/3 2/3to2/2 2/2to2/1 2/1to2/0"/>
    </vehicle>
    <vehicle id="44" depart="132.00">
        <route edges="3/0to2/0 2/0to1/0 1/0to1/1 1/1to0/1"/>
    </vehicle>
    <vehicle id="45" depart="135.00">
        <route edges="1/0to1/1 1/1to2/1 2/1to3/1 3/1to3/2"/>
    </vehicle>
    <vehicle id="46" depart="138.00">
        <route edges="2/3to1/3 1/3to1/2 1/2to1/1 1/1to0/1 0/1to0/2"/>
    </vehicle>
    <vehicle id="47" depart="141.00">
        <route edges="3/1to3/2 3/2to2/2 2/2to2/1 2/1to3/1 3/1to3/0 3/0to2/0"/>
    </vehicle>
    <vehicle id="48" depart="144.00">
        <route edges="0/0to1/0 1/0to1/1 1/1to2/1 2/1to3/1"/>
    </vehicle>
    <vehicle id="49" depart="147.00">
        <route edges="2/3to1/3 1/3to1/2 1/2to1/1 1/1to1/0 1/0to0/0 0/0to0/1"/>
    </vehicle>
    <vehicle id="50" depart="150.00">
        <route edges="3/2to3/1 3/1to2/1 2/1to1/1"/>
    </vehicle>
    <vehicle id="51" depart="153.00">
        <route edges="2/0to2/1 2/1to1/1 1/1to1/2 1/2to2/2"/>
    </vehicle>
    <vehicle id="52" depart="156.00">
        <route edges="2/3to2/2 2/2to1/2 1/2to1/1 1/1to1/0 1/0to2/0"/>
    </vehicle>
    <vehicle id="53" depart="159.00">
        <route edges="1/2to2/2 2/2to2/1 2/1to1/1 1/1to0/1"/>
    </vehicle>
    <vehicle id="54" depart="162.00">
        <route edges="1/0to0/0 0/0to0/1 0/1to1/1 1/1to2/1 2/1to3/1 3/1to3/2"/>
    </vehicle>
    <vehicle id="55" depart="165.00">
        <route edges="0/3to0/2 0/2to1/2 1/2to1/1 1/1to0/1"/>
    </vehicle>
    <vehicle id="56" depart="168.00">
        <route edges="2/3to3/3 3/3to3/2 3/2to2/2 2/2to1/2 1/2to0/2"/>
    </vehicle>
    <vehicle id="57" depart="171.00">
        <route edges="0/1to0/0 0/0to1/0 1/0to2/0 2/0to3/0"/>
    </vehicle>
    <vehicle id="58" depart="174.00">
        <route edges="0/2to0/1 0/1to1/1 1/1to1/0 1/0to2/0 2/0to2/1 2/1to1/1"/>
    </vehicle>
    <vehicle id="59" depart="177.00">
        <route edges="0/0to1/0 1/0to2/0"/>
    </vehicle>
    <vehicle id="60" depart="180.00">
        <route edges="2/3to3/3 3/3to3/2 3/2to2/2 2/2to1/2 1/2to1/1 1/1to0/1 0/1to0/2 0/2to1/2"/>
    </vehicle>
    <vehicle id="61" depart="183.00">
        <route edges="3/2to2/2 2/2to2/1 2/1to2/0 2/0to1/0 1/0to1/1"/>
    </vehicle>
    <vehicle id="62" depart="186.00">
        <route edges="2/1to3/1 3/1to3/0 3/0to2/0 2/0to1/0"/>
    </vehicle>
    <vehicle id="63" depart="189.00">
        <route edges="2/2to1/2 1/2to0/2 0/2to0/3 0/3to1/3"/>
    </vehicle>
    <vehicle id="64" depart="192.00">
        <route edges="2/0to3/0 3/0to3/1 3/1to2/1 2/1to1/1 1/1to1/2 1/2to2/2"/>
    </vehicle>
    <vehicle id="65" depart="195.00">
        <route edges="1/2to2/2 2/2to2/1 2/1to2/0 2/0to3/0 3/0to3/1"/>
    </vehicle>
    <vehicle id="66" depart="198.00">
        <route edges="2/0to1/0 1/0to1/1 1/1to1/2 1/2to2/2 2/2to3/2 3/2to3/3"/>
    </vehicle>
    <vehicle id="67" depart="201.00">
        <route edges="1/0to0/0 0/0to0/1 0/1to1/1 1/1to1/2"/>
    </vehicle>
    <vehicle id="68" depart="204.00">
        <route edges="1/2to0/2 0/2to0/1 0/1to1/1 1/1to2/1 2/1to2/0 2/0to1/0"/>
    </vehicle>
    <vehicle id="69" depart="207.00">
        <route edges="1/2to0/2 0/2to0/1 0/1to1/1 1/1to1/0"/>
    </vehicle>
    <vehicle id="70" depart="210.00">
        <route edges="0/2to0/1 0/1to0/0 0/0to1/0 1/0to1/1"/>
    </vehicle>
    <vehicle id="71" depart="213.00">
        <route edges="0/1to0/2 0/2to1/2 1/2to1/1 1/1to1/0 1/0to2/0 2/0to3/0"/>
    </vehicle>
    <vehicle id="72" depart="216.00">
        <route edges="1/3to1/2 1/2to2/2 2/2to2/3 2/3to1/3 1/3to0/3 0/3to0/2"/>
    </vehicle>
    <vehicle id="73" depart="219.00">
        <route edges="1/3to2/3 2/3to2/2 2/2to2/1 2/1to2/0 2/0to1/0 1/0to1/1"/>
    </vehicle>
    <vehicle id="74" depart="222.00">
        <route edges="1/3to1/2 1/2to0/2 0/2to0/1 0/1to0/0 0/0to1/0"/>
    </vehicle>
    <vehicle id="75" depart="225.00">
        <route edges="0/3to0/2 0/2to0/1 0/1to1/1 1/1to2/1 2/1to3/1 3/1to3/2"/>
    </vehicle>
    <vehicle id="76" depart="228.00">
        <route edges="0/3to1/3 1/3to1/2 1/2to0/2 0/2to0/1 0/1to0/0"/>
    </vehicle>
    <vehicle id="77" depart="231.00">
        <route edges="2/1to2/2 2/2to3/2"/>
    </vehicle>
    <vehicle id="78" depart="234.00">
        <route edges="2/0to3/0 3/0to3/1"/>
    </vehicle>
    <vehicle id="79" depart="237.00">
        <route edges="0/2to0/3 0/3to1/3 1/3to2/3 2/3to2/2"/>
    </vehicle>
    <vehicle id="80" depart="240.00">
        <route edges="1/3to1/2 1/2to2/2 2/2to2/3 2/3to1/3 1/3to0/3 0/3to0/2"/>
    </vehicle>
    <vehicle id="81" depart="243.00">
        <route edges="1/1to1/2 1/2to1/3 1/3to0/3 0/3to0/2"/>
    </vehicle>
    <vehicle id="82" depart="246.00">
        <route edges="2/2to2/3 2/3to1/3"/>
    </vehicle>
    <vehicle id="83" depart="249.00">
        <route edges="2/1to3/1 3/1to3/2 3/2to2/2 2/2to1/2 1/2to1/3 1/3to0/3"/>
    </vehicle>
    <vehicle id="84" depart="252.00">
        <route edges="1/0to0/0 0/0to0/1 0/1to1/1 1/1to2/1 2/1to3/1"/>
    </vehicle>
    <vehicle id="85" depart="255.00">
        <route edges="1/2to1/1 1/1to0/1 0/1to0/0 0/0to1/0"/>
    </vehicle>
    <vehicle id="86" depart="258.00">
        <route edges="3/2to3/1 3/1to2/1 2/1to1/1 1/1to0/1"/>
    </vehicle>
    <vehicle id="87" depart="261.00">
        <route edges="2/0to1/0 1/0to1/1 1/1to1/2"/>
    </vehicle>
    <vehicle id="88" depart="264.00">
        <route edges="2/2to3/2 3/2to3/1 3/1to2/1 2/1to1/1 1/1to1/2 1/2to0/2 0/2to0/1 0/1to1/1"/>
    </vehicle>
    <vehicle id="89" depart="267.00">
        <route edges="2/2to2/1 2/1to1/1 1/1to1/2 1/2to1/3 1/3to0/3 0/3to0/2"/>
    </vehicle>
    <vehicle id="90" depart="270.00">
        <route edges="1/2to2/2 2/2to2/3"/>
    </vehicle>
    <vehicle id="91" depart="273.00">
        <route edges="3/0to3/1 3/1to2/1 2/1to1/1 1/1to0/1 0/1to0/2 0/2to0/3"/>
    </vehicle>
    <vehicle id="92" depart="276.00">
        <route edges="2/3to3/3 3/3to3/2 3/2to2/2 2/2to1/2 1/2to1/1 1/1to0/1 0/1to0/2"/>
    </vehicle>
    <vehicle id="93" depart="279.00">
        <route edges="1/0to2/0 2/0to2/1"/>
    </vehicle>
    <vehicle id="94" depart="282.00">
        <route edges="3/0to3/1 3/1to2/1 2/1to1/1 1/1to1/2"/>
    </vehicle>
    <vehicle id="95" depart="285.00">
        <route edges="2/2to2/1 2/1to1/1 1/1to1/2 1/2to2/2 2/2to2/3 2/3to1/3"/>
    </vehicle>
    <vehicle id="96" depart="288.00">
        <route edges="2/0to2/1 2/1to3/1"/>
    </vehicle>
    <vehicle id="97" depart="291.00">
        <route edges="2/2to2/3 2/3to1/3 1/3to1/2 1/2to1/1 1/1to2/1 2/1to3/1"/>
    </vehicle>
    <vehicle id="98" depart="294.00">
        <route edges="0/3to0/2 0/2to0/1 0/1to1/1 1/1to1/0"/>
    </vehicle>
    <vehicle id="99" depart="297.00">
        <route edges="1/1to0/1 0/1to0/2 0/2to1/2 1/2to1/1 1/1to2/1 2/1to3/1 3/1to3/0"/>
    </vehicle>
    <vehicle id="100" depart="300.00">
        <route edges="1/2to2/2 2/2to2/1 2/1to3/1"/>
    </vehicle>
    <vehicle id="101" depart="303.00">
        <route edges="2/0to2/1 2/1to2/2 2/2to2/3 2/3to1/3"/>
    </vehicle>
    <vehicle id="102" depart="306.00">
        <route edges="3/0to3/1 3/1to2/1 2/1to1/1 1/1to1/2 1/2to1/3 1/3to0/3"/>
    </vehicle>
    <vehicle id="103" depart="309.00">
        <route edges="1/3to2/3 2/3to3/3 3/3to3/2 3/2to2/2"/>
    </vehicle>
    <vehicle id="104" depart="312.00">
        <route edges="1/2to2/2 2/2to3/2 3/2to3/1"/>
    </vehicle>
    <vehicle id="105" depart="315.00">
        <route edges="0/3to1/3 1/3to1/2"/>
    </vehicle>
    <vehicle id="106" depart="318.00">
        <route edges="0/3to1/3 1/3to2/3"/>
    </vehicle>
    <vehicle id="107" depart="321.00">
        <route edges="3/2to3/3 3/3to2/3 2/3to2/2 2/2to2/1 2/1to2/0 2/0to1/0 1/0to1/1"/>
    </vehicle>
    <vehicle id="108" depart="324.00">
        <route edges="3/1to2/1 2/1to2/2 2/2to2/3"/>
    </vehicle>
    <vehicle id="109" depart="327.00">
        <route edges="1/3to0/3 0/3to0/2 0/2to1/2 1/2to1/1 1/1to0/1 0/1to0/2"/>
    </vehicle>
    <vehicle id="110" depart="330.00">
        <route edges="1/3to0/3 0/3to0/2 0/2to1/2 1/2to2/2 2/2to3/2 3/2to3/1 3/1to2/1"/>
    </vehicle>
    <vehicle id="111" depart="333.00">
        <route edges="0/2to1/2 1/2to1/1 1/1to2/1 2/1to3/1 3/1to3/2"/>
    </vehicle>
    <vehicle id="112" depart="336.00">
        <route edges="0/3to0/2 0/2to0/1 0/1to0/0 0/0to1/0"/>
    </vehicle>
    <vehicle id="113" depart="339.00">
        <route edges="2/2to1/2 1/2to1/1 1/1to2/1 2/1to2/2 2/2to2/3 2/3to1/3"/>
    </vehicle>
    <vehicle id="114" depart="342.00">
        <route edges="3/3to3/2 3/2to3/1 3/1to3/0 3/0to2/0 2/0to2/1"/>
    </vehicle>
    <vehicle id="115" depart="345.00">
        <route edges="2/0to1/0 1/0to1/1 1/1to1/2 1/2to1/3 1/3to2/3 2/3to3/3 3/3to3/2"/>
    </vehicle>
    <vehicle id="116" depart="348.00">
        <route edges="0/1to0/0 0/0to1/0 1/0to1/1 1/1to2/1"/>
    </vehicle>
    <vehicle id="117" depart="351.00">
        <route edges="0/0to0/1 0/1to0/2 0/2to1/2 1/2to1/3 1/3to2/3 2/3to3/3 3/3to3/2"/>
    </vehicle>
    <vehicle id="118" depart="354.00">
        <route edges="3/1to2/1 2/1to2/2"/>
    </vehicle>
    <vehicle id="119" depart="357.00">
        <route edges="0/0to0/1 0/1to1/1 1/1to2/1 2/1to2/0"/>
    </vehicle>
    <vehicle id="120" depart="360.00">
        <route edges="1/3to2/3 2/3to2/2 2/2to1/2 1/2to1/1 1/1to1/0 1/0to2/0 2/0to2/1"/>
    </vehicle>
    <vehicle id="121" depart="363.00">
        <route edges="1/2to2/2 2/2to3/2 3/2to3/3 3/3to2/3"/>
    </vehicle>
    <vehicle id="122" depart="366.00">
        <route edges="1/2to1/3 1/3to2/3 2/3to2/2 2/2to2/1 2/1to2/0 2/0to1/0"/>
    </vehicle>
    <vehicle id="123" depart="369.00">
        <route edges="1/1to2/1 2/1to2/2 2/2to3/2 3/2to3/1"/>
    </vehicle>
    <vehicle id="124" depart="372.00">
        <route edges="3/3to2/3 2/3to2/2 2/2to3/2 3/2to3/1 3/1to2/1"/>
    </vehicle>
    <vehicle id="125" depart="375.00">
        <route edges="2/2to1/2 1/2to0/2 0/2to0/1"/>
    </vehicle>
    <vehicle id="126" depart="378.00">
        <route edges="1/0to0/0 0/0to0/1 0/1to0/2 0/2to0/3 0/3to1/3"/>
    </vehicle>
    <vehicle id="127" depart="381.00">
        <route edges="0/1to0/2 0/2to1/2 1/2to2/2 2/2to3/2 3/2to3/1"/>
    </vehicle>
    <vehicle id="128" depart="384.00">
        <route edges="3/3to3/2 3/2to3/1 3/1to3/0 3/0to2/0 2/0to2/1"/>
    </vehicle>
    <vehicle id="129" depart="387.00">
        <route edges="2/1to1/1 1/1to1/2 1/2to1/3"/>
    </vehicle>
    <vehicle id="130" depart="390.00">
        <route edges="0/3to0/2 0/2to0/1 0/1to1/1 1/1to1/0 1/0to2/0"/>
    </vehicle>
    <vehicle id="131" depart="393.00">
        <route edges="0/0to1/0 1/0to1/1 1/1to1/2 1/2to1/3 1/3to0/3"/>
    </vehicle>
    <vehicle id="132" depart="396.00">
        <route edges="0/2to0/1 0/1to1/1 1/1to1/2 1/2to1/3 1/3to2/3 2/3to3/3"/>
    </vehicle>
    <vehicle id="133" depart="399.00">
        <route edges="0/2to1/2 1/2to1/1 1/1to0/1 0/1to0/0"/>
    </vehicle>
    <vehicle id="134" depart="402.00">
        <route edges="0/1to1/1 1/1to2/1 2/1to3/1"/>
    </vehicle>
    <vehicle id="135" depart="405.00">
        <route edges="1/1to2/1 2/1to2/2 2/2to2/3"/>
    </vehicle>
    <vehicle id="136" depart="408.00">
        <route edges="2/1to3/1 3/1to3/2 3/2to2/2 2/2to1/2 1/2to0/2 0/2to0/3 0/3to1/3"/>
    </vehicle>
    <vehicle id="137" depart="411.00">
        <route edges="0/0to1/0 1/0to1/1"/>
    </vehicle>
    <vehicle id="138" depart="414.00">
        <route edges="3/2to3/1 3/1to2/1 2/1to2/2 2/2to2/3 2/3to1/3 1/3to1/2"/>
    </vehicle>
    <vehicle id="139" depart="417.00">
        <route edges="0/1to1/1 1/1to1/2 1/2to1/3"/>
    </vehicle>
    <vehicle id="140" depart="420.00">
        <route edges="0/0to1/0 1/0to1/1 1/1to1/2 1/2to2/2 2/2to2/3"/>
    </vehicle>
    <vehicle id="141" depart="423.00">
        <route edges="1/0to1/1 1/1to1/2 1/2to1/3"/>
    </vehicle>
    <vehicle id="142" depart="426.00">
        <route edges="1/2to1/3 1/3to2/3 2/3to2/2 2/2to2/1 2/1to2/0 2/0to1/0"/>
    </vehicle>
    <vehicle id="143" depart="429.00">
        <route edges="3/2to3/1 3/1to2/1 2/1to1/1 1/1to1/0 1/0to0/0"/>
    </vehicle>
    <vehicle id="144" depart="432.00">
        <route edges="1/1to1/2 1/2to0/2 0/2to0/1 0/1to1/1 1/1to1/0 1/0to0/0"/>
    </vehicle>
    <vehicle id="145" depart="435.00">
        <route edges="0/3to1/3 1/3to2/3 2/3to2/2 2/2to1/2"/>
    </vehicle>
    <vehicle id="146" depart="438.00">
        <route edges="1/0to2/0 2/0to2/1 2/1to2/2 2/2to3/2 3/2to3/3"/>
    </vehicle>
    <vehicle id="147" depart="441.00">
        <route edges="0/2to0/1 0/1to1/1 1/1to1/2 1/2to1/3 1/3to2/3 2/3to2/2"/>
    </vehicle>
    <vehicle id="148" depart="444.00">
        <route edges="2/2to1/2 1/2to0/2"/>
    </vehicle>
    <vehicle id="149" depart="447.00">
        <route edges="2/2to2/3 2/3to1/3 1/3to1/2 1/2to0/2 0/2to0/1"/>
    </vehicle>
    <vehicle id="150" depart="450.00">
        <route edges="1/1to1/0 1/0to0/0 0/0to0/1 0/1to0/2 0/2to0/3"/>
    </vehicle>
    <vehicle id="151" depart="453.00">
        <route edges="1/1to1/2 1/2to0/2 0/2to0/1 0/1to0/0"/>
    </vehicle>
    <vehicle id="152" depart="456.00">
        <route edges="3/1to3/2 3/2to2/2 2/2to2/1 2/1to2/0 2/0to1/0 1/0to1/1"/>
    </vehicle>
    <vehicle id="153" depart="459.00">
        <route edges="2/3to2/2 2/2to1/2 1/2to0/2 0/2to0/1 0/1to0/0 0/0to1/0"/>
    </vehicle>
    <vehicle id="154" depart="462.00">
        <route edges="3/3to2/3 2/3to1/3 1/3to1/2 1/2to1/1 1/1to0/1"/>
    </vehicle>
    <vehicle id="155" depart="465.00">
        <route edges="3/1to3/2 3/2to2/2 2/2to1/2 1/2to1/1"/>
    </vehicle>
    <vehicle id="156" depart="468.00">
        <route edges="2/2to3/2 3/2to3/1 3/1to2/1 2/1to1/1 1/1to1/0 1/0to2/0"/>
    </vehicle>
    <vehicle id="157" depart="471.00">
        <route edges="0/3to1/3 1/3to1/2 1/2to1/1 1/1to2/1 2/1to2/0 2/0to1/0"/>
    </vehicle>
    <vehicle id="158" depart="474.00">
        <route edges="3/0to2/0 2/0to2/1 2/1to2/2 2/2to2/3"/>
    </vehicle>
    <vehicle id="159" depart="477.00">
        <route edges="0/1to0/0 0/0to1/0 1/0to1/1 1/1to2/1 2/1to3/1 3/1to3/2 3/2to2/2"/>
    </vehicle>
    <vehicle id="160" depart="480.00">
        <route edges="1/3to1/2 1/2to1/1 1/1to0/1 0/1to0/2"/>
    </vehicle>
    <vehicle id="161" depart="483.00">
        <route edges="1/3to1/2 1/2to1/1 1/1to1/0 1/0to0/0 0/0to0/1"/>
    </vehicle>
    <vehicle id="162" depart="486.00">
        <route edges="2/2to2/1 2/1to1/1 1/1to1/0 1/0to0/0 0/0to0/1"/>
    </vehicle>
    <vehicle id="163" depart="489.00">
        <route edges="1/3to2/3 2/3to2/2 2/2to1/2 1/2to1/1 1/1to1/0 1/0to2/0"/>
    </vehicle>
    <vehicle id="164" depart="492.00">
        <route edges="2/2to2/3 2/3to3/3 3/3to3/2 3/2to3/1"/>
    </vehicle>
    <vehicle id="165" depart="495.00">
        <route edges="3/0to3/1 3/1to2/1 2/1to1/1 1/1to0/1 0/1to0/2 0/2to1/2"/>
    </vehicle>
    <vehicle id="166" depart="498.00">
        <route edges="1/2to1/1 1/1to0/1"/>
    </vehicle>
    <vehicle id="167" depart="501.00">
        <route edges="2/0to3/0 3/0to3/1 3/1to2/1 2/1to1/1 1/1to0/1 0/1to0/2 0/2to0/3"/>
    </vehicle>
    <vehicle id="168" depart="504.00">
        <route edges="2/0to3/0 3/0to3/1 3/1to2/1 2/1to2/2 2/2to2/3"/>
    </vehicle>
    <vehicle id="169" depart="507.00">
        <route edges="3/3to2/3 2/3to1/3 1/3to1/2 1/2to0/2 0/2to0/1 0/1to0/0"/>
    </vehicle>
    <vehicle id="170" depart="510.00">
        <route edges="1/3to0/3 0/3to0/2 0/2to0/1 0/1to1/1 1/1to2/1 2/1to3/1 3/1to3/0"/>
    </vehicle>
    <vehicle id="171" depart="513.00">
        <route edges="2/2to2/3 2/3to1/3 1/3to0/3"/>
    </vehicle>
    <vehicle id="172" depart="516.00">
        <route edges="0/2to0/3 0/3to1/3 1/3to1/2 1/2to1/1 1/1to2/1 2/1to3/1"/>
    </vehicle>
    <vehicle id="173" depart="519.00">
        <route edges="0/3to0/2 0/2to1/2 1/2to1/3 1/3to2/3 2/3to2/2"/>
    </vehicle>
    <vehicle id="174" depart="522.00">
        <route edges="2/3to3/3 3/3to3/2 3/2to2/2 2/2to2/1 2/1to3/1"/>
    </vehicle>
    <vehicle id="175" depart="525.00">
        <route edges="2/1to2/0 2/0to1/0 1/0to1/1 1/1to2/1 2/1to2/2 2/2to1/2"/>
    </vehicle>
    <vehicle id="176" depart="528.00">
        <route edges="2/3to3/3 3/3to3/2 3/2to2/2 2/2to1/2 1/2to1/1 1/1to2/1"/>
    </vehicle>
    <vehicle id="177" depart="531.00">
        <route edges="1/0to2/0 2/0to2/1 2/1to1/1 1/1to0/1 0/1to0/2 0/2to0/3 0/3to1/3"/>
    </vehicle>
    <vehicle id="178" depart="534.00">
        <route edges="1/3to2/3 2/3to2/2 2/2to2/1 2/1to2/0 2/0to1/0"/>
    </vehicle>
    <vehicle id="179" depart="537.00">
        <route edges="1/1to1/2 1/2to2/2 2/2to2/1 2/1to3/1"/>
    </vehicle>
    <vehicle id="180" depart="540.00">
        <route edges="1/3to2/3 2/3to2/2 2/2to1/2 1/2to1/1 1/1to1/0 1/0to2/0"/>
    </vehicle>
    <vehicle id="181" depart="543.00">
        <route edges="0/1to1/1 1/1to1/2 1/2to2/2"/>
    </vehicle>
    <vehicle id="182" depart="546.00">
        <route edges="3/3to3/2 3/2to2/2 2/2to1/2 1/2to1/3 1/3to0/3"/>
    </vehicle>
    <vehicle id="183" depart="549.00">
        <route edges="1/0to2/0 2/0to2/1 2/1to3/1 3/1to3/0"/>
    </vehicle>
    <vehicle id="184" depart="552.00">
        <route edges="0/0to0/1 0/1to1/1 1/1to2/1 2/1to3/1"/>
    </vehicle>
    <vehicle id="185" depart="555.00">
        <route edges="1/3to1/2 1/2to1/1 1/1to2/1 2/1to3/1 3/1to3/0"/>
    </vehicle>
    <vehicle id="186" depart="558.00">
        <route edges="1/0to2/0 2/0to2/1 2/1to1/1 1/1to1/2 1/2to1/3 1/3to0/3"/>
    </vehicle>
    <vehicle id="187" depart="561.00">
        <route edges="2/0to1/0 1/0to1/1 1/1to1/2 1/2to2/2 2/2to2/3"/>
    </vehicle>
    <vehicle id="188" depart="564.00">
        <route edges="2/2to2/3 2/3to1/3 1/3to1/2 1/2to0/2 0/2to0/1 0/1to0/0 0/0to1/0"/>
    </vehicle>
    <vehicle id="189" depart="567.00">
        <route edges="3/2to3/1 3/1to2/1 2/1to2/0 2/0to1/0 1/0to1/1 1/1to2/1"/>
    </vehicle>
    <vehicle id="190" depart="570.00">
        <route edges="3/0to2/0 2/0to2/1 2/1to1/1 1/1to1/0"/>
    </vehicle>
    <vehicle id="191" depart="573.00">
        <route edges="1/1to1/2 1/2to2/2 2/2to3/2 3/2to3/1"/>
    </vehicle>
    <vehicle id="192" depart="576.00">
        <route edges="1/1to1/2 1/2to2/2 2/2to3/2 3/2to3/3 3/3to2/3"/>
    </vehicle>
    <vehicle id="193" depart="579.00">
        <route edges="0/2to1/2 1/2to2/2 2/2to2/3"/>
    </vehicle>
    <vehicle id="194" depart="582.00">
        <route edges="1/2to0/2 0/2to0/1 0/1to0/0"/>
    </vehicle>
    <vehicle id="195" depart="585.00">
        <route edges="1/3to2/3 2/3to2/2 2/2to1/2 1/2to1/1 1/1to1/0 1/0to2/0"/>
    </vehicle>
    <vehicle id="196" depart="588.00">
        <route edges="3/2to2/2 2/2to1/2 1/2to1/1 1/1to0/1"/>
    </vehicle>
    <vehicle id="197" depart="591.00">
        <route edges="0/1to0/0 0/0to1/0 1/0to1/1 1/1to1/2 1/2to1/3 1/3to0/3"/>
    </vehicle>
    <vehicle id="198" depart="594.00">
        <route edges="1/2to2/2 2/2to3/2 3/2to3/1 3/1to2/1"/>
    </vehicle>
    <vehicle id="199" depart="597.00">
        <route edges="1/0to2/0 2/0to2/1 2/1to1/1 1/1to1/2 1/2to1/3 1/3to0/3 0/3to0/2"/>
    </vehicle>
    <vehicle id="200" depart="600.00">
        <route edges="2/2to2/1 2/1to3/1 3/1to3/2 3/2to3/3"/>
    </vehicle>
    <vehicle id="201" depart="603.00">
        <route edges="2/3to3/3 3/3to3/2 3/2to3/1 3/1to2/1"/>
    </vehicle>
    <vehicle id="202" depart="606.00">
        <route edges="3/3to2/3 2/3to1/3 1/3to1/2 1/2to1/1 1/1to0/1"/>
    </vehicle>
    <vehicle id="203" depart="609.00">
        <route edges="2/0to3/0 3/0to3/1 3/1to2/1 2/1to1/1 1/1to1/0 1/0to0/0 0/0to0/1"/>
    </vehicle>
    <vehicle id="204" depart="612.00">
        <route edges="0/3to0/2 0/2to1/2 1/2to2/2 2/2to3/2 3/2to3/3 3/3to2/3"/>
    </vehicle>
    <vehicle id="205" depart="615.00">
        <route edges="0/2to1/2 1/2to2/2 2/2to3/2"/>
    </vehicle>
    <vehicle id="206" depart="618.00">
        <route edges="0/3to0/2 0/2to0/1 0/1to1/1 1/1to2/1 2/1to3/1"/>
    </vehicle>
    <vehicle id="207" depart="621.00">
        <route edges="1/2to0/2 0/2to0/1 0/1to1/1 1/1to1/0 1/0to2/0 2/0to3/0"/>
    </vehicle>
    <vehicle id="208" depart="624.00">
        <route edges="2/1to3/1 3/1to3/2 3/2to2/2 2/2to2/3 2/3to3/3"/>
    </vehicle>
    <vehicle id="209" depart="627.00">
        <route edges="1/2to1/1 1/1to0/1 0/1to0/2 0/2to1/2 1/2to2/2 2/2to2/1"/>
    </vehicle>
    <vehicle id="210" depart="630.00">
        <route edges="0/2to1/2 1/2to2/2 2/2to2/1"/>
    </vehicle>
    <vehicle id="211" depart="633.00">
        <route edges="3/0to2/0 2/0to2/1 2/1to2/2 2/2to3/2 3/2to3/3"/>
    </vehicle>
    <vehicle id="212" depart="636.00">
        <route edges="2/0to2/1 2/1to1/1 1/1to1/2 1/2to1/3 1/3to2/3"/>
    </vehicle>
    <vehicle id="213" depart="639.00">
        <route edges="2/0to1/0 1/0to0/0 0/0to0/1 0/1to1/1"/>
    </vehicle>
    <vehicle id="214" depart="642.00">
        <route edges="0/0to1/0 1/0to1/1 1/1to1/2 1/2to1/3 1/3to2/3 2/3to2/2"/>
    </vehicle>
    <vehicle id="215" depart="645.00">
        <route edges="0/3to0/2 0/2to1/2 1/2to1/3 1/3to2/3 2/3to3/3 3/3to3/2"/>
    </vehicle>
    <vehicle id="216" depart="648.00">
        <route edges="1/0to2/0 2/0to2/1 2/1to2/2 2/2to3/2 3/2to3/3 3/3to2/3"/>
    </vehicle>
    <vehicle id="217" depart="651.00">
        <route edges="0/2to0/1 0/1to1/1 1/1to1/0 1/0to2/0 2/0to3/0"/>
    </vehicle>
    <vehicle id="218" depart="654.00">
        <route edges="1/1to2/1 2/1to2/2 2/2to1/2 1/2to1/3 1/3to0/3"/>
    </vehicle>
    <vehicle id="219" depart="657.00">
        <route edges="1/0to2/0 2/0to2/1 2/1to1/1 1/1to1/2 1/2to1/3 1/3to0/3 0/3to0/2"/>
    </vehicle>
    <vehicle id="220" depart="660.00">
        <route edges="3/1to3/0 3/0to2/0 2/0to2/1 2/1to2/2 2/2to2/3 2/3to3/3"/>
    </vehicle>
    <vehicle id="221" depart="663.00">
        <route edges="0/1to1/1 1/1to1/2 1/2to2/2 2/2to3/2 3/2to3/3 3/3to2/3"/>
    </vehicle>
    <vehicle id="222" depart="666.00">
        <route edges="1/0to2/0 2/0to2/1 2/1to2/2 2/2to2/3"/>
    </vehicle>
    <vehicle id="223" depart="669.00">
        <route edges="0/2to0/3 0/3to1/3 1/3to1/2 1/2to2/2 2/2to2/3 2/3to1/3"/>
    </vehicle>
    <vehicle id="224" depart="672.00">
        <route edges="1/1to1/2 1/2to2/2 2/2to3/2 3/2to3/3"/>
    </vehicle>
    <vehicle id="225" depart="675.00">
        <route edges="1/0to1/1 1/1to2/1 2/1to3/1 3/1to3/2 3/2to2/2"/>
    </vehicle>
    <vehicle id="226" depart="678.00">
        <route edges="2/3to3/3 3/3to3/2 3/2to2/2 2/2to1/2 1/2to0/2"/>
    </vehicle>
    <vehicle id="227" depart="681.00">
        <route edges="2/0to3/0 3/0to3/1 3/1to2/1 2/1to1/1 1/1to1/2 1/2to0/2"/>
    </vehicle>
    <vehicle id="228" depart="684.00">
        <route edges="1/1to2/1 2/1to2/2 2/2to3/2 3/2to3/1"/>
    </vehicle>
    <vehicle id="229" depart="687.00">
        <route edges="0/2to1/2 1/2to1/1 1/1to0/1 0/1to0/0"/>
    </vehicle>
    <vehicle id="230" depart="690.00">
        <route edges="1/1to2/1 2/1to2/2 2/2to1/2 1/2to1/3 1/3to2/3 2/3to2/2"/>
    </vehicle>
    <vehicle id="231" depart="693.00">
        <route edges="2/2to3/2 3/2to3/1 3/1to2/1 2/1to2/2 2/2to2/3 2/3to3/3"/>
    </vehicle>
    <vehicle id="232" depart="696.00">
        <route edges="3/0to2/0 2/0to2/1"/>
    </vehicle>
    <vehicle id="233" depart="699.00">
        <route edges="2/2to2/1 2/1to1/1"/>
    </vehicle>
    <vehicle id="234" depart="702.00">
        <route edges="0/1to1/1 1/1to1/2 1/2to2/2 2/2to3/2 3/2to3/3 3/3to2/3"/>
    </vehicle>
    <vehicle id="235" depart="705.00">
        <route edges="2/2to1/2 1/2to1/1 1/1to0/1 0/1to0/2"/>
    </vehicle>
    <vehicle id="236" depart="708.00">
        <route edges="1/3to0/3 0/3to0/2 0/2to0/1"/>
    </vehicle>