<additional>
    <laneData id="0" file="lane.data.out"/>
		<poi id="AP" x='1200' y='1200' type='eNodeB'/>
</additional>	
