<?xml version="1.0" encoding="UTF-8"?>

<!-- generated on Thu Dec 14 12:50:36 2017 by SUMO netconvert Version 0.25.0
<?xml version="1.0" encoding="UTF-8"?>

<configuration xmlns:xsi="http://www.w3.org/2001/XMLSchema-instance" xsi:noNamespaceSchemaLocation="http://sumo.dlr.de/xsd/netconvertConfiguration.xsd">

    <input>
        <node-files value="line.nod.xml"/>
        <edge-files value="line.edg.xml"/>
    </input>

    <output>
        <output-file value="line.net.xml"/>
    </output>

</configuration>
-->

<net version="0.25" xmlns:xsi="http://www.w3.org/2001/XMLSchema-instance" xsi:noNamespaceSchemaLocation="http://sumo.dlr.de/xsd/net_file.xsd">

    <location netOffset="0.00,0.00" convBoundary="0.00,0.00,10000.00,0.00" origBoundary="0.00,0.00,10000.00,0.00" projParameter="!"/>

    <edge id=":1_0" function="internal">
        <lane id=":1_0_0" index="0" speed="22.50" length="0.10" shape="7500.00,-8.25 7500.00,-8.25"/>
        <lane id=":1_0_1" index="1" speed="22.50" length="0.10" shape="7500.00,-4.95 7500.00,-4.95"/>
        <lane id=":1_0_2" index="2" speed="22.50" length="0.10" shape="7500.00,-1.65 7500.00,-1.65"/>
    </edge>

    <edge id="edg0" from="0" to="1" priority="13">
        <lane id="edg0_0" index="0" speed="22.50" length="7500.00" shape="0.00,-8.25 7500.00,-8.25"/>
        <lane id="edg0_1" index="1" speed="22.50" length="7500.00" shape="0.00,-4.95 7500.00,-4.95"/>
        <lane id="edg0_2" index="2" speed="22.50" length="7500.00" shape="0.00,-1.65 7500.00,-1.65"/>
    </edge>
    <edge id="edg1" from="1" to="2" priority="13">
        <lane id="edg1_0" index="0" speed="22.50" length="2500.00" shape="7500.00,-8.25 10000.00,-8.25"/>
        <lane id="edg1_1" index="1" speed="22.50" length="2500.00" shape="7500.00,-4.95 10000.00,-4.95"/>
        <lane id="edg1_2" index="2" speed="22.50" length="2500.00" shape="7500.00,-1.65 10000.00,-1.65"/>
    </edge>

    <junction id="0" type="unregulated" x="0.00" y="0.00" incLanes="" intLanes="" shape="0.00,-0.05 0.00,-9.85"/>
    <junction id="1" type="priority" x="7500.00" y="0.00" incLanes="edg0_0 edg0_1 edg0_2" intLanes=":1_0_0 :1_0_1 :1_0_2" shape="7500.00,-0.05 7500.00,-9.85 7500.00,-0.05">
        <request index="0" response="000" foes="000" cont="0"/>
        <request index="1" response="000" foes="000" cont="0"/>
        <request index="2" response="000" foes="000" cont="0"/>
    </junction>
    <junction id="2" type="unregulated" x="10000.00" y="0.00" incLanes="edg1_0 edg1_1 edg1_2" intLanes="" shape="10000.00,-9.85 10000.00,-0.05"/>

    <connection from="edg0" to="edg1" fromLane="0" toLane="0" via=":1_0_0" dir="s" state="M"/>
    <connection from="edg0" to="edg1" fromLane="1" toLane="1" via=":1_0_1" dir="s" state="M"/>
    <connection from="edg0" to="edg1" fromLane="2" toLane="2" via=":1_0_2" dir="s" state="M"/>

    <connection from=":1_0" to="edg1" fromLane="0" toLane="0" dir="s" state="M"/>
    <connection from=":1_0" to="edg1" fromLane="1" toLane="1" dir="s" state="M"/>
    <connection from=":1_0" to="edg1" fromLane="2" toLane="2" dir="s" state="M"/>

</net>
