<edges>
  <edge id="edg0" from="0" to="1" numLanes="3" priority="13" speed="37.5" />
	<edge id="edg1" from="1" to="2" numLanes="3" priority="13" speed="37.5" />
</edges>

