<routes>
	  <vType id="car" accel="0.8" decel="4.5" sigma="1.0" length="4" minGap="2.5" maxSpeed="13.89" guiShape="passenger" />
	  <route id="1" edges="edg0 edg1"/>
	  <vehicle id="0" type="car" route="1" depart="0"/>
	  <vehicle id="1" type="car" route="1" depart="3"/>
	  <vehicle id="2" type="car" route="1" depart="6"/>
	  <vehicle id="3" type="car" route="1" depart="9"/>
	  <vehicle id="4" type="car" route="1" depart="12"/>
	  <vehicle id="5" type="car" route="1" depart="15"/>
	  <vehicle id="7" type="car" route="1" depart="18"/>
	  <vehicle id="6" type="car" route="1" depart="21"/>
	  <vehicle id="8" type="car" route="1" depart="24"/>
	  <vehicle id="9" type="car" route="1" depart="27"/>  
</routes>