<nodes>
  <node id="0" x="0.0" y="0.0" type="priority" />
  <node id="1" x="7500.0" y="0.0" type="priority" />
  <node id="2" x="10000.0" y="0.0" type="priority" />
</nodes>
