<?xml version="1.0" encoding="UTF-8"?>

<!-- generated on Wed Feb 21 10:59:23 2018 by SUMO netgenerate Version 0.25.0
<?xml version="1.0" encoding="UTF-8"?>

<configuration xmlns:xsi="http://www.w3.org/2001/XMLSchema-instance" xsi:noNamespaceSchemaLocation="http://sumo.dlr.de/xsd/netgenerateConfiguration.xsd">

    <grid_network>
        <grid value="true"/>
        <grid.x-number value="4"/>
        <grid.y-number value="4"/>
        <grid.x-length value="800"/>
        <grid.y-length value="800"/>
    </grid_network>

    <output>
        <output-file value="grid.net.xml"/>
    </output>

    <tls_building>
        <tls.set value="1/1,1/2,2/1,2/2"/>
    </tls_building>

    <processing>
        <no-turnarounds value="true"/>
    </processing>

    <building_defaults>
        <default.lanenumber value="2"/>
        <default.speed value="12"/>
    </building_defaults>

</configuration>
-->

<net version="0.25" xmlns:xsi="http://www.w3.org/2001/XMLSchema-instance" xsi:noNamespaceSchemaLocation="http://sumo.dlr.de/xsd/net_file.xsd">

    <location netOffset="0.00,0.00" convBoundary="0.00,0.00,2400.00,2400.00" origBoundary="0.00,0.00,2400.00,2400.00" projParameter="!"/>

    <edge id=":0/0_0" function="internal">
        <lane id=":0/0_0_0" index="0" speed="12.00" length="15.89" shape="-4.95,6.55 -4.23,1.52 -2.08,-2.08 1.52,-4.23 6.55,-4.95"/>
        <lane id=":0/0_0_1" index="1" speed="12.00" length="15.89" shape="-1.65,6.55 -1.14,2.96 0.40,0.40 2.96,-1.14 6.55,-1.65"/>
    </edge>
    <edge id=":0/0_2" function="internal">
        <lane id=":0/0_2_0" index="0" speed="12.00" length="5.24" shape="6.55,4.95 5.85,5.05 5.35,5.35 5.05,5.85 4.95,6.55"/>
        <lane id=":0/0_2_1" index="1" speed="12.00" length="5.24" shape="6.55,1.65 4.41,1.96 2.88,2.87 1.96,4.41 1.65,6.55"/>
    </edge>
    <edge id=":0/1_0" function="internal">
        <lane id=":0/1_0_0" index="0" speed="12.00" length="16.10" shape="-4.95,808.05 -4.95,803.27 -4.95,800.00 -4.95,796.73 -4.95,791.95"/>
        <lane id=":0/1_0_1" index="1" speed="12.00" length="16.10" shape="-1.65,808.05 -1.65,803.27 -1.65,800.00 -1.65,796.73 -1.65,791.95"/>
    </edge>
    <edge id=":0/1_2" function="internal">
        <lane id=":0/1_2_0" index="0" speed="12.00" length="6.41" shape="-1.65,808.05 -1.04,803.81 0.05,801.98"/>
    </edge>
    <edge id=":0/1_8" function="internal">
        <lane id=":0/1_8_0" index="0" speed="12.00" length="9.23" shape="0.05,801.98 0.77,800.77 3.81,798.96 8.05,798.35"/>
    </edge>
    <edge id=":0/1_3" function="internal">
        <lane id=":0/1_3_0" index="0" speed="12.00" length="5.00" shape="8.05,804.95 6.69,805.14 5.73,805.73 5.14,806.69 4.95,808.05"/>
    </edge>
    <edge id=":0/1_4" function="internal">
        <lane id=":0/1_4_0" index="0" speed="12.00" length="15.64" shape="8.05,801.65 3.81,801.04 0.77,799.22 -1.04,796.19 -1.65,791.95"/>
    </edge>
    <edge id=":0/1_5" function="internal">
        <lane id=":0/1_5_0" index="0" speed="12.00" length="5.00" shape="4.95,791.95 5.14,793.31 5.72,794.27 6.69,794.86 8.05,795.05"/>
    </edge>
    <edge id=":0/1_6" function="internal">
        <lane id=":0/1_6_0" index="0" speed="12.00" length="16.10" shape="4.95,791.95 4.95,796.73 4.95,800.00 4.95,803.27 4.95,808.05"/>
        <lane id=":0/1_6_1" index="1" speed="12.00" length="16.10" shape="1.65,791.95 1.65,796.73 1.65,800.00 1.65,803.27 1.65,808.05"/>
    </edge>
    <edge id=":0/2_0" function="internal">
        <lane id=":0/2_0_0" index="0" speed="12.00" length="16.10" shape="-4.95,1608.05 -4.95,1603.27 -4.95,1600.00 -4.95,1596.73 -4.95,1591.95"/>
        <lane id=":0/2_0_1" index="1" speed="12.00" length="16.10" shape="-1.65,1608.05 -1.65,1603.27 -1.65,1600.00 -1.65,1596.73 -1.65,1591.95"/>
    </edge>
    <edge id=":0/2_2" function="internal">
        <lane id=":0/2_2_0" index="0" speed="12.00" length="6.41" shape="-1.65,1608.05 -1.04,1603.81 0.05,1601.98"/>
    </edge>
    <edge id=":0/2_8" function="internal">
        <lane id=":0/2_8_0" index="0" speed="12.00" length="9.23" shape="0.05,1601.98 0.77,1600.78 3.81,1598.96 8.05,1598.35"/>
    </edge>
    <edge id=":0/2_3" function="internal">
        <lane id=":0/2_3_0" index="0" speed="12.00" length="5.00" shape="8.05,1604.95 6.69,1605.14 5.73,1605.73 5.14,1606.69 4.95,1608.05"/>
    </edge>
    <edge id=":0/2_4" function="internal">
        <lane id=":0/2_4_0" index="0" speed="12.00" length="15.64" shape="8.05,1601.65 3.81,1601.04 0.77,1599.23 -1.04,1596.19 -1.65,1591.95"/>
    </edge>
    <edge id=":0/2_5" function="internal">
        <lane id=":0/2_5_0" index="0" speed="12.00" length="5.00" shape="4.95,1591.95 5.14,1593.31 5.72,1594.28 6.69,1594.86 8.05,1595.05"/>
    </edge>
    <edge id=":0/2_6" function="internal">
        <lane id=":0/2_6_0" index="0" speed="12.00" length="16.10" shape="4.95,1591.95 4.95,1596.73 4.95,1600.00 4.95,1603.27 4.95,1608.05"/>
        <lane id=":0/2_6_1" index="1" speed="12.00" length="16.10" shape="1.65,1591.95 1.65,1596.73 1.65,1600.00 1.65,1603.27 1.65,1608.05"/>
    </edge>
    <edge id=":0/3_0" function="internal">
        <lane id=":0/3_0_0" index="0" speed="12.00" length="15.89" shape="6.55,2404.95 1.52,2404.23 -2.08,2402.07 -4.23,2398.48 -4.95,2393.45"/>
        <lane id=":0/3_0_1" index="1" speed="12.00" length="15.89" shape="6.55,2401.65 2.96,2401.14 0.40,2399.60 -1.14,2397.04 -1.65,2393.45"/>
    </edge>
    <edge id=":0/3_2" function="internal">
        <lane id=":0/3_2_0" index="0" speed="12.00" length="5.24" shape="4.95,2393.45 5.05,2394.15 5.35,2394.65 5.85,2394.95 6.55,2395.05"/>
        <lane id=":0/3_2_1" index="1" speed="12.00" length="5.24" shape="1.65,2393.45 1.96,2395.59 2.87,2397.12 4.41,2398.04 6.55,2398.35"/>
    </edge>
    <edge id=":1/0_0" function="internal">
        <lane id=":1/0_0_0" index="0" speed="12.00" length="5.00" shape="795.05,8.05 794.86,6.69 794.27,5.73 793.31,5.14 791.95,4.95"/>
    </edge>
    <edge id=":1/0_1" function="internal">
        <lane id=":1/0_1_0" index="0" speed="12.00" length="15.64" shape="798.35,8.05 798.96,3.81 800.78,0.77 803.81,-1.04 808.05,-1.65"/>
    </edge>
    <edge id=":1/0_2" function="internal">
        <lane id=":1/0_2_0" index="0" speed="12.00" length="5.00" shape="808.05,4.95 806.69,5.14 805.73,5.72 805.14,6.69 804.95,8.05"/>
    </edge>
    <edge id=":1/0_3" function="internal">
        <lane id=":1/0_3_0" index="0" speed="12.00" length="16.10" shape="808.05,4.95 803.27,4.95 800.00,4.95 796.73,4.95 791.95,4.95"/>
        <lane id=":1/0_3_1" index="1" speed="12.00" length="16.10" shape="808.05,1.65 803.27,1.65 800.00,1.65 796.73,1.65 791.95,1.65"/>
    </edge>
    <edge id=":1/0_5" function="internal">
        <lane id=":1/0_5_0" index="0" speed="12.00" length="16.10" shape="791.95,-4.95 796.73,-4.95 800.00,-4.95 803.27,-4.95 808.05,-4.95"/>
        <lane id=":1/0_5_1" index="1" speed="12.00" length="16.10" shape="791.95,-1.65 796.73,-1.65 800.00,-1.65 803.27,-1.65 808.05,-1.65"/>
    </edge>
    <edge id=":1/0_7" function="internal">
        <lane id=":1/0_7_0" index="0" speed="12.00" length="6.41" shape="791.95,-1.65 796.19,-1.04 798.02,0.05"/>
    </edge>
    <edge id=":1/0_8" function="internal">
        <lane id=":1/0_8_0" index="0" speed="12.00" length="9.23" shape="798.02,0.05 799.23,0.77 801.04,3.81 801.65,8.05"/>
    </edge>
    <edge id=":1/1_0" function="internal">
        <lane id=":1/1_0_0" index="0" speed="12.00" length="5.00" shape="795.05,808.05 794.86,806.69 794.27,805.73 793.31,805.14 791.95,804.95"/>
    </edge>
    <edge id=":1/1_1" function="internal">
        <lane id=":1/1_1_0" index="0" speed="12.00" length="16.10" shape="795.05,808.05 795.05,803.27 795.05,800.00 795.05,796.73 795.05,791.95"/>
        <lane id=":1/1_1_1" index="1" speed="12.00" length="16.10" shape="798.35,808.05 798.35,803.27 798.35,800.00 798.35,796.73 798.35,791.95"/>
    </edge>
    <edge id=":1/1_3" function="internal">
        <lane id=":1/1_3_0" index="0" speed="12.00" length="6.41" shape="798.35,808.05 798.96,803.81 800.05,801.98"/>
    </edge>
    <edge id=":1/1_14" function="internal">
        <lane id=":1/1_14_0" index="0" speed="12.00" length="9.23" shape="800.05,801.98 800.78,800.77 803.81,798.96 808.05,798.35"/>
    </edge>
    <edge id=":1/1_4" function="internal">
        <lane id=":1/1_4_0" index="0" speed="12.00" length="5.00" shape="808.05,804.95 806.69,805.14 805.73,805.73 805.14,806.69 804.95,808.05"/>
    </edge>
    <edge id=":1/1_5" function="internal">
        <lane id=":1/1_5_0" index="0" speed="12.00" length="16.10" shape="808.05,801.65 803.27,801.65 800.00,801.65 796.73,801.65 791.95,801.65"/>
    </edge>
    <edge id=":1/1_6" function="internal">
        <lane id=":1/1_6_0" index="0" speed="12.00" length="6.41" shape="808.05,801.65 803.81,801.04 801.98,799.95"/>
    </edge>
    <edge id=":1/1_15" function="internal">
        <lane id=":1/1_15_0" index="0" speed="12.00" length="9.23" shape="801.98,799.95 800.77,799.22 798.96,796.19 798.35,791.95"/>
    </edge>
    <edge id=":1/1_7" function="internal">
        <lane id=":1/1_7_0" index="0" speed="12.00" length="5.00" shape="804.95,791.95 805.14,793.31 805.73,794.27 806.69,794.86 808.05,795.05"/>
    </edge>
    <edge id=":1/1_8" function="internal">
        <lane id=":1/1_8_0" index="0" speed="12.00" length="16.10" shape="804.95,791.95 804.95,796.73 804.95,800.00 804.95,803.27 804.95,808.05"/>
        <lane id=":1/1_8_1" index="1" speed="12.00" length="16.10" shape="801.65,791.95 801.65,796.73 801.65,800.00 801.65,803.27 801.65,808.05"/>
    </edge>
    <edge id=":1/1_10" function="internal">
        <lane id=":1/1_10_0" index="0" speed="12.00" length="6.41" shape="801.65,791.95 801.04,796.19 799.95,798.02"/>
    </edge>
    <edge id=":1/1_16" function="internal">
        <lane id=":1/1_16_0" index="0" speed="12.00" length="9.23" shape="799.95,798.02 799.22,799.23 796.19,801.04 791.95,801.65"/>
    </edge>
    <edge id=":1/1_11" function="internal">
        <lane id=":1/1_11_0" index="0" speed="12.00" length="5.00" shape="791.95,795.05 793.31,794.86 794.27,794.27 794.86,793.31 795.05,791.95"/>
    </edge>
    <edge id=":1/1_12" function="internal">
        <lane id=":1/1_12_0" index="0" speed="12.00" length="16.10" shape="791.95,798.35 796.73,798.35 800.00,798.35 803.27,798.35 808.05,798.35"/>
    </edge>
    <edge id=":1/1_13" function="internal">
        <lane id=":1/1_13_0" index="0" speed="12.00" length="6.41" shape="791.95,798.35 796.19,798.96 798.02,800.05"/>
    </edge>
    <edge id=":1/1_17" function="internal">
        <lane id=":1/1_17_0" index="0" speed="12.00" length="9.23" shape="798.02,800.05 799.23,800.78 801.04,803.81 801.65,808.05"/>
    </edge>
    <edge id=":1/2_0" function="internal">
        <lane id=":1/2_0_0" index="0" speed="12.00" length="5.00" shape="795.05,1608.05 794.86,1606.69 794.27,1605.72 793.31,1605.14 791.95,1604.95"/>
    </edge>
    <edge id=":1/2_1" function="internal">
        <lane id=":1/2_1_0" index="0" speed="12.00" length="16.10" shape="795.05,1608.05 795.05,1603.27 795.05,1600.00 795.05,1596.73 795.05,1591.95"/>
        <lane id=":1/2_1_1" index="1" speed="12.00" length="16.10" shape="798.35,1608.05 798.35,1603.27 798.35,1600.00 798.35,1596.73 798.35,1591.95"/>
    </edge>
    <edge id=":1/2_3" function="internal">
        <lane id=":1/2_3_0" index="0" speed="12.00" length="6.41" shape="798.35,1608.05 798.96,1603.81 800.05,1601.98"/>
    </edge>
    <edge id=":1/2_14" function="internal">
        <lane id=":1/2_14_0" index="0" speed="12.00" length="9.23" shape="800.05,1601.98 800.78,1600.78 803.81,1598.96 808.05,1598.35"/>
    </edge>
    <edge id=":1/2_4" function="internal">
        <lane id=":1/2_4_0" index="0" speed="12.00" length="5.00" shape="808.05,1604.95 806.69,1605.14 805.73,1605.73 805.14,1606.69 804.95,1608.05"/>
    </edge>
    <edge id=":1/2_5" function="internal">
        <lane id=":1/2_5_0" index="0" speed="12.00" length="16.10" shape="808.05,1601.65 803.27,1601.65 800.00,1601.65 796.73,1601.65 791.95,1601.65"/>
    </edge>
    <edge id=":1/2_6" function="internal">
        <lane id=":1/2_6_0" index="0" speed="12.00" length="6.41" shape="808.05,1601.65 803.81,1601.04 801.98,1599.95"/>
    </edge>
    <edge id=":1/2_15" function="internal">
        <lane id=":1/2_15_0" index="0" speed="12.00" length="9.23" shape="801.98,1599.95 800.77,1599.23 798.96,1596.19 798.35,1591.95"/>
    </edge>
    <edge id=":1/2_7" function="internal">
        <lane id=":1/2_7_0" index="0" speed="12.00" length="5.00" shape="804.95,1591.95 805.14,1593.31 805.73,1594.28 806.69,1594.86 808.05,1595.05"/>
    </edge>
    <edge id=":1/2_8" function="internal">
        <lane id=":1/2_8_0" index="0" speed="12.00" length="16.10" shape="804.95,1591.95 804.95,1596.73 804.95,1600.00 804.95,1603.27 804.95,1608.05"/>
        <lane id=":1/2_8_1" index="1" speed="12.00" length="16.10" shape="801.65,1591.95 801.65,1596.73 801.65,1600.00 801.65,1603.27 801.65,1608.05"/>
    </edge>
    <edge id=":1/2_10" function="internal">
        <lane id=":1/2_10_0" index="0" speed="12.00" length="6.41" shape="801.65,1591.95 801.04,1596.19 799.95,1598.02"/>
    </edge>
    <edge id=":1/2_16" function="internal">
        <lane id=":1/2_16_0" index="0" speed="12.00" length="9.23" shape="799.95,1598.02 799.22,1599.22 796.19,1601.04 791.95,1601.65"/>
    </edge>
    <edge id=":1/2_11" function="internal">
        <lane id=":1/2_11_0" index="0" speed="12.00" length="5.00" shape="791.95,1595.05 793.31,1594.86 794.27,1594.27 794.86,1593.31 795.05,1591.95"/>
    </edge>
    <edge id=":1/2_12" function="internal">
        <lane id=":1/2_12_0" index="0" speed="12.00" length="16.10" shape="791.95,1598.35 796.73,1598.35 800.00,1598.35 803.27,1598.35 808.05,1598.35"/>
    </edge>
    <edge id=":1/2_13" function="internal">
        <lane id=":1/2_13_0" index="0" speed="12.00" length="6.41" shape="791.95,1598.35 796.19,1598.96 798.02,1600.05"/>
    </edge>
    <edge id=":1/2_17" function="internal">
        <lane id=":1/2_17_0" index="0" speed="12.00" length="9.23" shape="798.02,1600.05 799.23,1600.77 801.04,1603.81 801.65,1608.05"/>
    </edge>
    <edge id=":1/3_0" function="internal">
        <lane id=":1/3_0_0" index="0" speed="12.00" length="16.10" shape="808.05,2404.95 803.27,2404.95 800.00,2404.95 796.73,2404.95 791.95,2404.95"/>
        <lane id=":1/3_0_1" index="1" speed="12.00" length="16.10" shape="808.05,2401.65 803.27,2401.65 800.00,2401.65 796.73,2401.65 791.95,2401.65"/>
    </edge>
    <edge id=":1/3_2" function="internal">
        <lane id=":1/3_2_0" index="0" speed="12.00" length="6.41" shape="808.05,2401.65 803.81,2401.04 801.98,2399.95"/>
    </edge>
    <edge id=":1/3_8" function="internal">
        <lane id=":1/3_8_0" index="0" speed="12.00" length="9.23" shape="801.98,2399.95 800.77,2399.23 798.96,2396.19 798.35,2391.95"/>
    </edge>
    <edge id=":1/3_3" function="internal">
        <lane id=":1/3_3_0" index="0" speed="12.00" length="5.00" shape="804.95,2391.95 805.14,2393.31 805.73,2394.28 806.69,2394.86 808.05,2395.05"/>
    </edge>
    <edge id=":1/3_4" function="internal">
        <lane id=":1/3_4_0" index="0" speed="12.00" length="15.64" shape="801.65,2391.95 801.04,2396.19 799.22,2399.22 796.19,2401.04 791.95,2401.65"/>
    </edge>
    <edge id=":1/3_5" function="internal">
        <lane id=":1/3_5_0" index="0" speed="12.00" length="5.00" shape="791.95,2395.05 793.31,2394.86 794.27,2394.28 794.86,2393.31 795.05,2391.95"/>
    </edge>
    <edge id=":1/3_6" function="internal">
        <lane id=":1/3_6_0" index="0" speed="12.00" length="16.10" shape="791.95,2395.05 796.73,2395.05 800.00,2395.05 803.27,2395.05 808.05,2395.05"/>
        <lane id=":1/3_6_1" index="1" speed="12.00" length="16.10" shape="791.95,2398.35 796.73,2398.35 800.00,2398.35 803.27,2398.35 808.05,2398.35"/>
    </edge>
    <edge id=":2/0_0" function="internal">
        <lane id=":2/0_0_0" index="0" speed="12.00" length="5.00" shape="1595.05,8.05 1594.86,6.69 1594.27,5.73 1593.31,5.14 1591.95,4.95"/>
    </edge>
    <edge id=":2/0_1" function="internal">
        <lane id=":2/0_1_0" index="0" speed="12.00" length="15.64" shape="1598.35,8.05 1598.96,3.81 1600.77,0.77 1603.81,-1.04 1608.05,-1.65"/>
    </edge>
    <edge id=":2/0_2" function="internal">
        <lane id=":2/0_2_0" index="0" speed="12.00" length="5.00" shape="1608.05,4.95 1606.69,5.14 1605.72,5.72 1605.14,6.69 1604.95,8.05"/>
    </edge>
    <edge id=":2/0_3" function="internal">
        <lane id=":2/0_3_0" index="0" speed="12.00" length="16.10" shape="1608.05,4.95 1603.27,4.95 1600.00,4.95 1596.73,4.95 1591.95,4.95"/>
        <lane id=":2/0_3_1" index="1" speed="12.00" length="16.10" shape="1608.05,1.65 1603.27,1.65 1600.00,1.65 1596.73,1.65 1591.95,1.65"/>
    </edge>
    <edge id=":2/0_5" function="internal">
        <lane id=":2/0_5_0" index="0" speed="12.00" length="16.10" shape="1591.95,-4.95 1596.73,-4.95 1600.00,-4.95 1603.27,-4.95 1608.05,-4.95"/>
        <lane id=":2/0_5_1" index="1" speed="12.00" length="16.10" shape="1591.95,-1.65 1596.73,-1.65 1600.00,-1.65 1603.27,-1.65 1608.05,-1.65"/>
    </edge>
    <edge id=":2/0_7" function="internal">
        <lane id=":2/0_7_0" index="0" speed="12.00" length="6.41" shape="1591.95,-1.65 1596.19,-1.04 1598.02,0.05"/>
    </edge>
    <edge id=":2/0_8" function="internal">
        <lane id=":2/0_8_0" index="0" speed="12.00" length="9.23" shape="1598.02,0.05 1599.22,0.77 1601.04,3.81 1601.65,8.05"/>
    </edge>
    <edge id=":2/1_0" function="internal">
        <lane id=":2/1_0_0" index="0" speed="12.00" length="5.00" shape="1595.05,808.05 1594.86,806.69 1594.27,805.73 1593.31,805.14 1591.95,804.95"/>
    </edge>
    <edge id=":2/1_1" function="internal">
        <lane id=":2/1_1_0" index="0" speed="12.00" length="16.10" shape="1595.05,808.05 1595.05,803.27 1595.05,800.00 1595.05,796.73 1595.05,791.95"/>
        <lane id=":2/1_1_1" index="1" speed="12.00" length="16.10" shape="1598.35,808.05 1598.35,803.27 1598.35,800.00 1598.35,796.73 1598.35,791.95"/>
    </edge>
    <edge id=":2/1_3" function="internal">
        <lane id=":2/1_3_0" index="0" speed="12.00" length="6.41" shape="1598.35,808.05 1598.96,803.81 1600.05,801.98"/>
    </edge>
    <edge id=":2/1_14" function="internal">
        <lane id=":2/1_14_0" index="0" speed="12.00" length="9.23" shape="1600.05,801.98 1600.77,800.77 1603.81,798.96 1608.05,798.35"/>
    </edge>
    <edge id=":2/1_4" function="internal">
        <lane id=":2/1_4_0" index="0" speed="12.00" length="5.00" shape="1608.05,804.95 1606.69,805.14 1605.72,805.73 1605.14,806.69 1604.95,808.05"/>
    </edge>
    <edge id=":2/1_5" function="internal">
        <lane id=":2/1_5_0" index="0" speed="12.00" length="16.10" shape="1608.05,801.65 1603.27,801.65 1600.00,801.65 1596.73,801.65 1591.95,801.65"/>
    </edge>
    <edge id=":2/1_6" function="internal">
        <lane id=":2/1_6_0" index="0" speed="12.00" length="6.41" shape="1608.05,801.65 1603.81,801.04 1601.98,799.95"/>
    </edge>
    <edge id=":2/1_15" function="internal">
        <lane id=":2/1_15_0" index="0" speed="12.00" length="9.23" shape="1601.98,799.95 1600.78,799.22 1598.96,796.19 1598.35,791.95"/>
    </edge>
    <edge id=":2/1_7" function="internal">
        <lane id=":2/1_7_0" index="0" speed="12.00" length="5.00" shape="1604.95,791.95 1605.14,793.31 1605.73,794.27 1606.69,794.86 1608.05,795.05"/>
    </edge>
    <edge id=":2/1_8" function="internal">
        <lane id=":2/1_8_0" index="0" speed="12.00" length="16.10" shape="1604.95,791.95 1604.95,796.73 1604.95,800.00 1604.95,803.27 1604.95,808.05"/>
        <lane id=":2/1_8_1" index="1" speed="12.00" length="16.10" shape="1601.65,791.95 1601.65,796.73 1601.65,800.00 1601.65,803.27 1601.65,808.05"/>
    </edge>
    <edge id=":2/1_10" function="internal">
        <lane id=":2/1_10_0" index="0" speed="12.00" length="6.41" shape="1601.65,791.95 1601.04,796.19 1599.95,798.02"/>
    </edge>
    <edge id=":2/1_16" function="internal">
        <lane id=":2/1_16_0" index="0" speed="12.00" length="9.23" shape="1599.95,798.02 1599.23,799.23 1596.19,801.04 1591.95,801.65"/>
    </edge>
    <edge id=":2/1_11" function="internal">
        <lane id=":2/1_11_0" index="0" speed="12.00" length="5.00" shape="1591.95,795.05 1593.31,794.86 1594.28,794.27 1594.86,793.31 1595.05,791.95"/>
    </edge>
    <edge id=":2/1_12" function="internal">
        <lane id=":2/1_12_0" index="0" speed="12.00" length="16.10" shape="1591.95,798.35 1596.73,798.35 1600.00,798.35 1603.27,798.35 1608.05,798.35"/>
    </edge>
    <edge id=":2/1_13" function="internal">
        <lane id=":2/1_13_0" index="0" speed="12.00" length="6.41" shape="1591.95,798.35 1596.19,798.96 1598.02,800.05"/>
    </edge>
    <edge id=":2/1_17" function="internal">
        <lane id=":2/1_17_0" index="0" speed="12.00" length="9.23" shape="1598.02,800.05 1599.22,800.78 1601.04,803.81 1601.65,808.05"/>
    </edge>
    <edge id=":2/2_0" function="internal">
        <lane id=":2/2_0_0" index="0" speed="12.00" length="5.00" shape="1595.05,1608.05 1594.86,1606.69 1594.27,1605.72 1593.31,1605.14 1591.95,1604.95"/>
    </edge>
    <edge id=":2/2_1" function="internal">
        <lane id=":2/2_1_0" index="0" speed="12.00" length="16.10" shape="1595.05,1608.05 1595.05,1603.27 1595.05,1600.00 1595.05,1596.73 1595.05,1591.95"/>
        <lane id=":2/2_1_1" index="1" speed="12.00" length="16.10" shape="1598.35,1608.05 1598.35,1603.27 1598.35,1600.00 1598.35,1596.73 1598.35,1591.95"/>
    </edge>
    <edge id=":2/2_3" function="internal">
        <lane id=":2/2_3_0" index="0" speed="12.00" length="6.41" shape="1598.35,1608.05 1598.96,1603.81 1600.05,1601.98"/>
    </edge>
    <edge id=":2/2_14" function="internal">
        <lane id=":2/2_14_0" index="0" speed="12.00" length="9.23" shape="1600.05,1601.98 1600.77,1600.78 1603.81,1598.96 1608.05,1598.35"/>
    </edge>
    <edge id=":2/2_4" function="internal">
        <lane id=":2/2_4_0" index="0" speed="12.00" length="5.00" shape="1608.05,1604.95 1606.69,1605.14 1605.72,1605.73 1605.14,1606.69 1604.95,1608.05"/>
    </edge>
    <edge id=":2/2_5" function="internal">
        <lane id=":2/2_5_0" index="0" speed="12.00" length="16.10" shape="1608.05,1601.65 1603.27,1601.65 1600.00,1601.65 1596.73,1601.65 1591.95,1601.65"/>
    </edge>
    <edge id=":2/2_6" function="internal">
        <lane id=":2/2_6_0" index="0" speed="12.00" length="6.41" shape="1608.05,1601.65 1603.81,1601.04 1601.98,1599.95"/>
    </edge>
    <edge id=":2/2_15" function="internal">
        <lane id=":2/2_15_0" index="0" speed="12.00" length="9.23" shape="1601.98,1599.95 1600.78,1599.23 1598.96,1596.19 1598.35,1591.95"/>
    </edge>
    <edge id=":2/2_7" function="internal">
        <lane id=":2/2_7_0" index="0" speed="12.00" length="5.00" shape="1604.95,1591.95 1605.14,1593.31 1605.73,1594.28 1606.69,1594.86 1608.05,1595.05"/>
    </edge>
    <edge id=":2/2_8" function="internal">
        <lane id=":2/2_8_0" index="0" speed="12.00" length="16.10" shape="1604.95,1591.95 1604.95,1596.73 1604.95,1600.00 1604.95,1603.27 1604.95,1608.05"/>
        <lane id=":2/2_8_1" index="1" speed="12.00" length="16.10" shape="1601.65,1591.95 1601.65,1596.73 1601.65,1600.00 1601.65,1603.27 1601.65,1608.05"/>
    </edge>
    <edge id=":2/2_10" function="internal">
        <lane id=":2/2_10_0" index="0" speed="12.00" length="6.41" shape="1601.65,1591.95 1601.04,1596.19 1599.95,1598.02"/>
    </edge>
    <edge id=":2/2_16" function="internal">
        <lane id=":2/2_16_0" index="0" speed="12.00" length="9.23" shape="1599.95,1598.02 1599.23,1599.22 1596.19,1601.04 1591.95,1601.65"/>
    </edge>
    <edge id=":2/2_11" function="internal">
        <lane id=":2/2_11_0" index="0" speed="12.00" length="5.00" shape="1591.95,1595.05 1593.31,1594.86 1594.28,1594.27 1594.86,1593.31 1595.05,1591.95"/>
    </edge>
    <edge id=":2/2_12" function="internal">
        <lane id=":2/2_12_0" index="0" speed="12.00" length="16.10" shape="1591.95,1598.35 1596.73,1598.35 1600.00,1598.35 1603.27,1598.35 1608.05,1598.35"/>
    </edge>
    <edge id=":2/2_13" function="internal">
        <lane id=":2/2_13_0" index="0" speed="12.00" length="6.41" shape="1591.95,1598.35 1596.19,1598.96 1598.02,1600.05"/>
    </edge>
    <edge id=":2/2_17" function="internal">
        <lane id=":2/2_17_0" index="0" speed="12.00" length="9.23" shape="1598.02,1600.05 1599.22,1600.77 1601.04,1603.81 1601.65,1608.05"/>
    </edge>
    <edge id=":2/3_0" function="internal">
        <lane id=":2/3_0_0" index="0" speed="12.00" length="16.10" shape="1608.05,2404.95 1603.27,2404.95 1600.00,2404.95 1596.73,2404.95 1591.95,2404.95"/>
        <lane id=":2/3_0_1" index="1" speed="12.00" length="16.10" shape="1608.05,2401.65 1603.27,2401.65 1600.00,2401.65 1596.73,2401.65 1591.95,2401.65"/>
    </edge>
    <edge id=":2/3_2" function="internal">
        <lane id=":2/3_2_0" index="0" speed="12.00" length="6.41" shape="1608.05,2401.65 1603.81,2401.04 1601.98,2399.95"/>
    </edge>
    <edge id=":2/3_8" function="internal">
        <lane id=":2/3_8_0" index="0" speed="12.00" length="9.23" shape="1601.98,2399.95 1600.78,2399.23 1598.96,2396.19 1598.35,2391.95"/>
    </edge>
    <edge id=":2/3_3" function="internal">
        <lane id=":2/3_3_0" index="0" speed="12.00" length="5.00" shape="1604.95,2391.95 1605.14,2393.31 1605.73,2394.28 1606.69,2394.86 1608.05,2395.05"/>
    </edge>
    <edge id=":2/3_4" function="internal">
        <lane id=":2/3_4_0" index="0" speed="12.00" length="15.64" shape="1601.65,2391.95 1601.04,2396.19 1599.23,2399.22 1596.19,2401.04 1591.95,2401.65"/>
    </edge>
    <edge id=":2/3_5" function="internal">
        <lane id=":2/3_5_0" index="0" speed="12.00" length="5.00" shape="1591.95,2395.05 1593.31,2394.86 1594.28,2394.28 1594.86,2393.31 1595.05,2391.95"/>
    </edge>
    <edge id=":2/3_6" function="internal">
        <lane id=":2/3_6_0" index="0" speed="12.00" length="16.10" shape="1591.95,2395.05 1596.73,2395.05 1600.00,2395.05 1603.27,2395.05 1608.05,2395.05"/>
        <lane id=":2/3_6_1" index="1" speed="12.00" length="16.10" shape="1591.95,2398.35 1596.73,2398.35 1600.00,2398.35 1603.27,2398.35 1608.05,2398.35"/>
    </edge>
    <edge id=":3/0_0" function="internal">
        <lane id=":3/0_0_0" index="0" speed="12.00" length="5.24" shape="2395.05,6.55 2394.95,5.85 2394.65,5.35 2394.15,5.05 2393.45,4.95"/>
        <lane id=":3/0_0_1" index="1" speed="12.00" length="5.24" shape="2398.35,6.55 2398.04,4.41 2397.12,2.88 2395.59,1.96 2393.45,1.65"/>
    </edge>
    <edge id=":3/0_2" function="internal">
        <lane id=":3/0_2_0" index="0" speed="12.00" length="15.89" shape="2393.45,-4.95 2398.48,-4.23 2402.07,-2.08 2404.23,1.52 2404.95,6.55"/>
        <lane id=":3/0_2_1" index="1" speed="12.00" length="15.89" shape="2393.45,-1.65 2397.04,-1.14 2399.60,0.40 2401.14,2.96 2401.65,6.55"/>
    </edge>
    <edge id=":3/1_0" function="internal">
        <lane id=":3/1_0_0" index="0" speed="12.00" length="5.00" shape="2395.05,808.05 2394.86,806.69 2394.28,805.73 2393.31,805.14 2391.95,804.95"/>
    </edge>
    <edge id=":3/1_1" function="internal">
        <lane id=":3/1_1_0" index="0" speed="12.00" length="16.10" shape="2395.05,808.05 2395.05,803.27 2395.05,800.00 2395.05,796.73 2395.05,791.95"/>
        <lane id=":3/1_1_1" index="1" speed="12.00" length="16.10" shape="2398.35,808.05 2398.35,803.27 2398.35,800.00 2398.35,796.73 2398.35,791.95"/>
    </edge>
    <edge id=":3/1_3" function="internal">
        <lane id=":3/1_3_0" index="0" speed="12.00" length="16.10" shape="2404.95,791.95 2404.95,796.73 2404.95,800.00 2404.95,803.27 2404.95,808.05"/>
        <lane id=":3/1_3_1" index="1" speed="12.00" length="16.10" shape="2401.65,791.95 2401.65,796.73 2401.65,800.00 2401.65,803.27 2401.65,808.05"/>
    </edge>
    <edge id=":3/1_5" function="internal">
        <lane id=":3/1_5_0" index="0" speed="12.00" length="6.41" shape="2401.65,791.95 2401.04,796.19 2399.95,798.02"/>
    </edge>
    <edge id=":3/1_8" function="internal">
        <lane id=":3/1_8_0" index="0" speed="12.00" length="9.23" shape="2399.95,798.02 2399.23,799.23 2396.19,801.04 2391.95,801.65"/>
    </edge>
    <edge id=":3/1_6" function="internal">
        <lane id=":3/1_6_0" index="0" speed="12.00" length="5.00" shape="2391.95,795.05 2393.31,794.86 2394.28,794.27 2394.86,793.31 2395.05,791.95"/>
    </edge>
    <edge id=":3/1_7" function="internal">
        <lane id=":3/1_7_0" index="0" speed="12.00" length="15.64" shape="2391.95,798.35 2396.19,798.96 2399.22,800.78 2401.04,803.81 2401.65,808.05"/>
    </edge>
    <edge id=":3/2_0" function="internal">
        <lane id=":3/2_0_0" index="0" speed="12.00" length="5.00" shape="2395.05,1608.05 2394.86,1606.69 2394.28,1605.72 2393.31,1605.14 2391.95,1604.95"/>
    </edge>
    <edge id=":3/2_1" function="internal">
        <lane id=":3/2_1_0" index="0" speed="12.00" length="16.10" shape="2395.05,1608.05 2395.05,1603.27 2395.05,1600.00 2395.05,1596.73 2395.05,1591.95"/>
        <lane id=":3/2_1_1" index="1" speed="12.00" length="16.10" shape="2398.35,1608.05 2398.35,1603.27 2398.35,1600.00 2398.35,1596.73 2398.35,1591.95"/>
    </edge>
    <edge id=":3/2_3" function="internal">
        <lane id=":3/2_3_0" index="0" speed="12.00" length="16.10" shape="2404.95,1591.95 2404.95,1596.73 2404.95,1600.00 2404.95,1603.27 2404.95,1608.05"/>
        <lane id=":3/2_3_1" index="1" speed="12.00" length="16.10" shape="2401.65,1591.95 2401.65,1596.73 2401.65,1600.00 2401.65,1603.27 2401.65,1608.05"/>
    </edge>
    <edge id=":3/2_5" function="internal">
        <lane id=":3/2_5_0" index="0" speed="12.00" length="6.41" shape="2401.65,1591.95 2401.04,1596.19 2399.95,1598.02"/>
    </edge>
    <edge id=":3/2_8" function="internal">
        <lane id=":3/2_8_0" index="0" speed="12.00" length="9.23" shape="2399.95,1598.02 2399.23,1599.22 2396.19,1601.04 2391.95,1601.65"/>
    </edge>
    <edge id=":3/2_6" function="internal">