<?xml version="1.0" encoding="utf-8"?>
<flows>
	<vType id="type1" accel="2.0" decel="4.5" length="5" minGap="2.5" maxSpeed="45">
		<carFollowing-Krauss timeHeadWay="1.8" speedFactor="1" speedDev="0.1" sigma="0.5" impatience="1.0" />
	</vType>

	<flow id='f0' from="0/0to0/1" begin='0' end='3600' probability="0.5"/>
</flows>